
---------- Begin Simulation Statistics ----------
simSeconds                                   1.682379                       # Number of seconds simulated (Second)
simTicks                                 1682378691500                       # Number of ticks simulated (Tick)
finalTick                                1682378691500                       # Number of ticks from beginning of simulation (restored from checkpoints and never reset) (Tick)
simFreq                                  1000000000000                       # The number of ticks per simulated second ((Tick/Second))
hostSeconds                                    988.57                       # Real time elapsed on the host (Second)
hostTickRate                               1701830762                       # The number of ticks simulated per host second (ticks/s) ((Tick/Second))
hostMemory                                     956460                       # Number of bytes of host memory used (Byte)
simInsts                                     50000000                       # Number of instructions simulated (Count)
simOps                                       95981396                       # Number of ops (including micro ops) simulated (Count)
hostInstRate                                    50578                       # Simulator instruction rate (inst/s) ((Count/Second))
hostOpRate                                      97091                       # Simulator op (including micro ops) rate (op/s) ((Count/Second))
system.clk_domain.clock                          1000                       # Clock period in ticks (Tick)
system.cpu.numCycles                       3364757383                       # Number of cpu cycles simulated (Cycle)
system.cpu.cpi                              67.294986                       # CPI: cycles per instruction (core level) ((Cycle/Count))
system.cpu.ipc                               0.014860                       # IPC: instructions per cycle (core level) ((Count/Cycle))
system.cpu.numWorkItemsStarted                      0                       # Number of work items this cpu started (Count)
system.cpu.numWorkItemsCompleted                    0                       # Number of work items this cpu completed (Count)
system.cpu.commitStats0.numInsts             50000120                       # Number of instructions committed (thread level) (Count)
system.cpu.commitStats0.numOps               96025459                       # Number of ops (including micro ops) committed (thread level) (Count)
system.cpu.commitStats0.numInstsNotNOP              0                       # Number of instructions committed excluding NOPs or prefetches (Count)
system.cpu.commitStats0.numOpsNotNOP                0                       # Number of Ops (including micro ops) Simulated (Count)
system.cpu.commitStats0.cpi                 67.294986                       # CPI: cycles per instruction (thread level) ((Cycle/Count))
system.cpu.commitStats0.ipc                  0.014860                       # IPC: instructions per cycle (thread level) ((Count/Cycle))
system.cpu.commitStats0.numMemRefs                  0                       # Number of memory references committed (Count)
system.cpu.commitStats0.numFpInsts           51877766                       # Number of float instructions (Count)
system.cpu.commitStats0.numIntInsts          96019925                       # Number of integer instructions (Count)
system.cpu.commitStats0.numLoadInsts          1350076                       # Number of load instructions (Count)
system.cpu.commitStats0.numStoreInsts        52072721                       # Number of store instructions (Count)
system.cpu.commitStats0.numVecInsts                 0                       # Number of vector instructions (Count)
system.cpu.commitStats0.committedInstType::No_OpClass          550      0.00%      0.00% # Class of committed instruction. (Count)
system.cpu.commitStats0.committedInstType::IntAlu     42597742     44.36%     44.36% # Class of committed instruction. (Count)
system.cpu.commitStats0.committedInstType::IntMult          725      0.00%     44.36% # Class of committed instruction. (Count)
system.cpu.commitStats0.committedInstType::IntDiv           21      0.00%     44.36% # Class of committed instruction. (Count)
system.cpu.commitStats0.committedInstType::FloatAdd          199      0.00%     44.36% # Class of committed instruction. (Count)
system.cpu.commitStats0.committedInstType::FloatCmp            0      0.00%     44.36% # Class of committed instruction. (Count)
system.cpu.commitStats0.committedInstType::FloatCvt            0      0.00%     44.36% # Class of committed instruction. (Count)
system.cpu.commitStats0.committedInstType::FloatMult            0      0.00%     44.36% # Class of committed instruction. (Count)
system.cpu.commitStats0.committedInstType::FloatMultAcc            0      0.00%     44.36% # Class of committed instruction. (Count)
system.cpu.commitStats0.committedInstType::FloatDiv            0      0.00%     44.36% # Class of committed instruction. (Count)
system.cpu.commitStats0.committedInstType::FloatMisc            0      0.00%     44.36% # Class of committed instruction. (Count)
system.cpu.commitStats0.committedInstType::FloatSqrt            0      0.00%     44.36% # Class of committed instruction. (Count)
system.cpu.commitStats0.committedInstType::SimdAdd            0      0.00%     44.36% # Class of committed instruction. (Count)
system.cpu.commitStats0.committedInstType::SimdAddAcc            0      0.00%     44.36% # Class of committed instruction. (Count)
system.cpu.commitStats0.committedInstType::SimdAlu          786      0.00%     44.36% # Class of committed instruction. (Count)
system.cpu.commitStats0.committedInstType::SimdCmp           12      0.00%     44.36% # Class of committed instruction. (Count)
system.cpu.commitStats0.committedInstType::SimdCvt          788      0.00%     44.36% # Class of committed instruction. (Count)
system.cpu.commitStats0.committedInstType::SimdMisc         1839      0.00%     44.37% # Class of committed instruction. (Count)
system.cpu.commitStats0.committedInstType::SimdMult            0      0.00%     44.37% # Class of committed instruction. (Count)
system.cpu.commitStats0.committedInstType::SimdMultAcc            0      0.00%     44.37% # Class of committed instruction. (Count)
system.cpu.commitStats0.committedInstType::SimdMatMultAcc            0      0.00%     44.37% # Class of committed instruction. (Count)
system.cpu.commitStats0.committedInstType::SimdShift            0      0.00%     44.37% # Class of committed instruction. (Count)
system.cpu.commitStats0.committedInstType::SimdShiftAcc            0      0.00%     44.37% # Class of committed instruction. (Count)
system.cpu.commitStats0.committedInstType::SimdDiv            0      0.00%     44.37% # Class of committed instruction. (Count)
system.cpu.commitStats0.committedInstType::SimdSqrt            0      0.00%     44.37% # Class of committed instruction. (Count)
system.cpu.commitStats0.committedInstType::SimdFloatAdd            0      0.00%     44.37% # Class of committed instruction. (Count)
system.cpu.commitStats0.committedInstType::SimdFloatAlu            0      0.00%     44.37% # Class of committed instruction. (Count)
system.cpu.commitStats0.committedInstType::SimdFloatCmp            0      0.00%     44.37% # Class of committed instruction. (Count)
system.cpu.commitStats0.committedInstType::SimdFloatCvt            0      0.00%     44.37% # Class of committed instruction. (Count)
system.cpu.commitStats0.committedInstType::SimdFloatDiv            0      0.00%     44.37% # Class of committed instruction. (Count)
system.cpu.commitStats0.committedInstType::SimdFloatMisc            0      0.00%     44.37% # Class of committed instruction. (Count)
system.cpu.commitStats0.committedInstType::SimdFloatMult            0      0.00%     44.37% # Class of committed instruction. (Count)
system.cpu.commitStats0.committedInstType::SimdFloatMultAcc            0      0.00%     44.37% # Class of committed instruction. (Count)
system.cpu.commitStats0.committedInstType::SimdFloatMatMultAcc            0      0.00%     44.37% # Class of committed instruction. (Count)
system.cpu.commitStats0.committedInstType::SimdFloatSqrt            0      0.00%     44.37% # Class of committed instruction. (Count)
system.cpu.commitStats0.committedInstType::SimdReduceAdd            0      0.00%     44.37% # Class of committed instruction. (Count)
system.cpu.commitStats0.committedInstType::SimdReduceAlu            0      0.00%     44.37% # Class of committed instruction. (Count)
system.cpu.commitStats0.committedInstType::SimdReduceCmp            0      0.00%     44.37% # Class of committed instruction. (Count)
system.cpu.commitStats0.committedInstType::SimdFloatReduceAdd            0      0.00%     44.37% # Class of committed instruction. (Count)
system.cpu.commitStats0.committedInstType::SimdFloatReduceCmp            0      0.00%     44.37% # Class of committed instruction. (Count)
system.cpu.commitStats0.committedInstType::SimdAes            0      0.00%     44.37% # Class of committed instruction. (Count)
system.cpu.commitStats0.committedInstType::SimdAesMix            0      0.00%     44.37% # Class of committed instruction. (Count)
system.cpu.commitStats0.committedInstType::SimdSha1Hash            0      0.00%     44.37% # Class of committed instruction. (Count)
system.cpu.commitStats0.committedInstType::SimdSha1Hash2            0      0.00%     44.37% # Class of committed instruction. (Count)
system.cpu.commitStats0.committedInstType::SimdSha256Hash            0      0.00%     44.37% # Class of committed instruction. (Count)
system.cpu.commitStats0.committedInstType::SimdSha256Hash2            0      0.00%     44.37% # Class of committed instruction. (Count)
system.cpu.commitStats0.committedInstType::SimdShaSigma2            0      0.00%     44.37% # Class of committed instruction. (Count)
system.cpu.commitStats0.committedInstType::SimdShaSigma3            0      0.00%     44.37% # Class of committed instruction. (Count)
system.cpu.commitStats0.committedInstType::SimdPredAlu            0      0.00%     44.37% # Class of committed instruction. (Count)
system.cpu.commitStats0.committedInstType::Matrix            0      0.00%     44.37% # Class of committed instruction. (Count)
system.cpu.commitStats0.committedInstType::MatrixMov            0      0.00%     44.37% # Class of committed instruction. (Count)
system.cpu.commitStats0.committedInstType::MatrixOP            0      0.00%     44.37% # Class of committed instruction. (Count)
system.cpu.commitStats0.committedInstType::MemRead      1349628      1.41%     45.77% # Class of committed instruction. (Count)
system.cpu.commitStats0.committedInstType::MemWrite       199576      0.21%     45.98% # Class of committed instruction. (Count)
system.cpu.commitStats0.committedInstType::FloatMemRead          448      0.00%     45.98% # Class of committed instruction. (Count)
system.cpu.commitStats0.committedInstType::FloatMemWrite     51873145     54.02%    100.00% # Class of committed instruction. (Count)
system.cpu.commitStats0.committedInstType::IprAccess            0      0.00%    100.00% # Class of committed instruction. (Count)
system.cpu.commitStats0.committedInstType::InstPrefetch            0      0.00%    100.00% # Class of committed instruction. (Count)
system.cpu.commitStats0.committedInstType::VectorUnitStrideLoad            0      0.00%    100.00% # Class of committed instruction. (Count)
system.cpu.commitStats0.committedInstType::VectorUnitStrideStore            0      0.00%    100.00% # Class of committed instruction. (Count)
system.cpu.commitStats0.committedInstType::VectorUnitStrideMaskLoad            0      0.00%    100.00% # Class of committed instruction. (Count)
system.cpu.commitStats0.committedInstType::VectorUnitStrideMaskStore            0      0.00%    100.00% # Class of committed instruction. (Count)
system.cpu.commitStats0.committedInstType::VectorStridedLoad            0      0.00%    100.00% # Class of committed instruction. (Count)
system.cpu.commitStats0.committedInstType::VectorStridedStore            0      0.00%    100.00% # Class of committed instruction. (Count)
system.cpu.commitStats0.committedInstType::VectorIndexedLoad            0      0.00%    100.00% # Class of committed instruction. (Count)
system.cpu.commitStats0.committedInstType::VectorIndexedStore            0      0.00%    100.00% # Class of committed instruction. (Count)
system.cpu.commitStats0.committedInstType::VectorUnitStrideFaultOnlyFirstLoad            0      0.00%    100.00% # Class of committed instruction. (Count)
system.cpu.commitStats0.committedInstType::VectorWholeRegisterLoad            0      0.00%    100.00% # Class of committed instruction. (Count)
system.cpu.commitStats0.committedInstType::VectorWholeRegisterStore            0      0.00%    100.00% # Class of committed instruction. (Count)
system.cpu.commitStats0.committedInstType::VectorIntegerArith            0      0.00%    100.00% # Class of committed instruction. (Count)
system.cpu.commitStats0.committedInstType::VectorFloatArith            0      0.00%    100.00% # Class of committed instruction. (Count)
system.cpu.commitStats0.committedInstType::VectorFloatConvert            0      0.00%    100.00% # Class of committed instruction. (Count)
system.cpu.commitStats0.committedInstType::VectorIntegerReduce            0      0.00%    100.00% # Class of committed instruction. (Count)
system.cpu.commitStats0.committedInstType::VectorFloatReduce            0      0.00%    100.00% # Class of committed instruction. (Count)
system.cpu.commitStats0.committedInstType::VectorMisc            0      0.00%    100.00% # Class of committed instruction. (Count)
system.cpu.commitStats0.committedInstType::VectorIntegerExtension            0      0.00%    100.00% # Class of committed instruction. (Count)
system.cpu.commitStats0.committedInstType::VectorConfig            0      0.00%    100.00% # Class of committed instruction. (Count)
system.cpu.commitStats0.committedInstType::total     96025459                       # Class of committed instruction. (Count)
system.cpu.commitStats0.committedControl::IsControl      6543942                       # Class of control type instructions committed (Count)
system.cpu.commitStats0.committedControl::IsDirectControl      6539395                       # Class of control type instructions committed (Count)
system.cpu.commitStats0.committedControl::IsIndirectControl         4547                       # Class of control type instructions committed (Count)
system.cpu.commitStats0.committedControl::IsCondControl      6532565                       # Class of control type instructions committed (Count)
system.cpu.commitStats0.committedControl::IsUncondControl        11377                       # Class of control type instructions committed (Count)
system.cpu.commitStats0.committedControl::IsCall         3803                       # Class of control type instructions committed (Count)
system.cpu.commitStats0.committedControl::IsReturn         3797                       # Class of control type instructions committed (Count)
system.cpu.dcache.demandHits::cpu.data        1465361                       # number of demand (read+write) hits (Count)
system.cpu.dcache.demandHits::total           1465361                       # number of demand (read+write) hits (Count)
system.cpu.dcache.overallHits::cpu.data       1465361                       # number of overall hits (Count)
system.cpu.dcache.overallHits::total          1465361                       # number of overall hits (Count)
system.cpu.dcache.demandMisses::cpu.data     51913886                       # number of demand (read+write) misses (Count)
system.cpu.dcache.demandMisses::total        51913886                       # number of demand (read+write) misses (Count)
system.cpu.dcache.overallMisses::cpu.data     51913886                       # number of overall misses (Count)
system.cpu.dcache.overallMisses::total       51913886                       # number of overall misses (Count)
system.cpu.dcache.demandMissLatency::cpu.data 1609187531000                       # number of demand (read+write) miss ticks (Tick)
system.cpu.dcache.demandMissLatency::total 1609187531000                       # number of demand (read+write) miss ticks (Tick)
system.cpu.dcache.overallMissLatency::cpu.data 1609187531000                       # number of overall miss ticks (Tick)
system.cpu.dcache.overallMissLatency::total 1609187531000                       # number of overall miss ticks (Tick)
system.cpu.dcache.demandAccesses::cpu.data     53379247                       # number of demand (read+write) accesses (Count)
system.cpu.dcache.demandAccesses::total      53379247                       # number of demand (read+write) accesses (Count)
system.cpu.dcache.overallAccesses::cpu.data     53379247                       # number of overall (read+write) accesses (Count)
system.cpu.dcache.overallAccesses::total     53379247                       # number of overall (read+write) accesses (Count)
system.cpu.dcache.demandMissRate::cpu.data     0.972548                       # miss rate for demand accesses (Ratio)
system.cpu.dcache.demandMissRate::total      0.972548                       # miss rate for demand accesses (Ratio)
system.cpu.dcache.overallMissRate::cpu.data     0.972548                       # miss rate for overall accesses (Ratio)
system.cpu.dcache.overallMissRate::total     0.972548                       # miss rate for overall accesses (Ratio)
system.cpu.dcache.demandAvgMissLatency::cpu.data 30997.246690                       # average overall miss latency in ticks ((Tick/Count))
system.cpu.dcache.demandAvgMissLatency::total 30997.246690                       # average overall miss latency in ticks ((Tick/Count))
system.cpu.dcache.overallAvgMissLatency::cpu.data 30997.246690                       # average overall miss latency ((Tick/Count))
system.cpu.dcache.overallAvgMissLatency::total 30997.246690                       # average overall miss latency ((Tick/Count))
system.cpu.dcache.blockedCycles::no_mshrs            0                       # number of cycles access was blocked (Cycle)
system.cpu.dcache.blockedCycles::no_targets            0                       # number of cycles access was blocked (Cycle)
system.cpu.dcache.blockedCauses::no_mshrs            0                       # number of times access was blocked (Count)
system.cpu.dcache.blockedCauses::no_targets            0                       # number of times access was blocked (Count)
system.cpu.dcache.avgBlocked::no_mshrs            nan                       # average number of cycles each access was blocked ((Cycle/Count))
system.cpu.dcache.avgBlocked::no_targets          nan                       # average number of cycles each access was blocked ((Cycle/Count))
system.cpu.dcache.writebacks::writebacks     51873321                       # number of writebacks (Count)
system.cpu.dcache.writebacks::total          51873321                       # number of writebacks (Count)
system.cpu.dcache.demandMshrMisses::cpu.data     51913886                       # number of demand (read+write) MSHR misses (Count)
system.cpu.dcache.demandMshrMisses::total     51913886                       # number of demand (read+write) MSHR misses (Count)
system.cpu.dcache.overallMshrMisses::cpu.data     51913886                       # number of overall MSHR misses (Count)
system.cpu.dcache.overallMshrMisses::total     51913886                       # number of overall MSHR misses (Count)
system.cpu.dcache.demandMshrMissLatency::cpu.data 1557273645000                       # number of demand (read+write) MSHR miss ticks (Tick)
system.cpu.dcache.demandMshrMissLatency::total 1557273645000                       # number of demand (read+write) MSHR miss ticks (Tick)
system.cpu.dcache.overallMshrMissLatency::cpu.data 1557273645000                       # number of overall MSHR miss ticks (Tick)
system.cpu.dcache.overallMshrMissLatency::total 1557273645000                       # number of overall MSHR miss ticks (Tick)
system.cpu.dcache.demandMshrMissRate::cpu.data     0.972548                       # mshr miss ratio for demand accesses (Ratio)
system.cpu.dcache.demandMshrMissRate::total     0.972548                       # mshr miss ratio for demand accesses (Ratio)
system.cpu.dcache.overallMshrMissRate::cpu.data     0.972548                       # mshr miss ratio for overall accesses (Ratio)
system.cpu.dcache.overallMshrMissRate::total     0.972548                       # mshr miss ratio for overall accesses (Ratio)
system.cpu.dcache.demandAvgMshrMissLatency::cpu.data 29997.246690                       # average overall mshr miss latency ((Tick/Count))
system.cpu.dcache.demandAvgMshrMissLatency::total 29997.246690                       # average overall mshr miss latency ((Tick/Count))
system.cpu.dcache.overallAvgMshrMissLatency::cpu.data 29997.246690                       # average overall mshr miss latency ((Tick/Count))
system.cpu.dcache.overallAvgMshrMissLatency::total 29997.246690                       # average overall mshr miss latency ((Tick/Count))
system.cpu.dcache.replacements               51913766                       # number of replacements (Count)
system.cpu.dcache.LockedRMWReadReq.hits::cpu.data            8                       # number of LockedRMWReadReq hits (Count)
system.cpu.dcache.LockedRMWReadReq.hits::total            8                       # number of LockedRMWReadReq hits (Count)
system.cpu.dcache.LockedRMWReadReq.misses::cpu.data            8                       # number of LockedRMWReadReq misses (Count)
system.cpu.dcache.LockedRMWReadReq.misses::total            8                       # number of LockedRMWReadReq misses (Count)
system.cpu.dcache.LockedRMWReadReq.missLatency::cpu.data       163000                       # number of LockedRMWReadReq miss ticks (Tick)
system.cpu.dcache.LockedRMWReadReq.missLatency::total       163000                       # number of LockedRMWReadReq miss ticks (Tick)
system.cpu.dcache.LockedRMWReadReq.accesses::cpu.data           16                       # number of LockedRMWReadReq accesses(hits+misses) (Count)
system.cpu.dcache.LockedRMWReadReq.accesses::total           16                       # number of LockedRMWReadReq accesses(hits+misses) (Count)
system.cpu.dcache.LockedRMWReadReq.missRate::cpu.data     0.500000                       # miss rate for LockedRMWReadReq accesses (Ratio)
system.cpu.dcache.LockedRMWReadReq.missRate::total     0.500000                       # miss rate for LockedRMWReadReq accesses (Ratio)
system.cpu.dcache.LockedRMWReadReq.avgMissLatency::cpu.data        20375                       # average LockedRMWReadReq miss latency ((Tick/Count))
system.cpu.dcache.LockedRMWReadReq.avgMissLatency::total        20375                       # average LockedRMWReadReq miss latency ((Tick/Count))
system.cpu.dcache.LockedRMWReadReq.mshrMisses::cpu.data            8                       # number of LockedRMWReadReq MSHR misses (Count)
system.cpu.dcache.LockedRMWReadReq.mshrMisses::total            8                       # number of LockedRMWReadReq MSHR misses (Count)
system.cpu.dcache.LockedRMWReadReq.mshrMissLatency::cpu.data       326000                       # number of LockedRMWReadReq MSHR miss ticks (Tick)
system.cpu.dcache.LockedRMWReadReq.mshrMissLatency::total       326000                       # number of LockedRMWReadReq MSHR miss ticks (Tick)
system.cpu.dcache.LockedRMWReadReq.mshrMissRate::cpu.data     0.500000                       # mshr miss rate for LockedRMWReadReq accesses (Ratio)
system.cpu.dcache.LockedRMWReadReq.mshrMissRate::total     0.500000                       # mshr miss rate for LockedRMWReadReq accesses (Ratio)
system.cpu.dcache.LockedRMWReadReq.avgMshrMissLatency::cpu.data        40750                       # average LockedRMWReadReq mshr miss latency ((Tick/Count))
system.cpu.dcache.LockedRMWReadReq.avgMshrMissLatency::total        40750                       # average LockedRMWReadReq mshr miss latency ((Tick/Count))
system.cpu.dcache.LockedRMWWriteReq.hits::cpu.data           16                       # number of LockedRMWWriteReq hits (Count)
system.cpu.dcache.LockedRMWWriteReq.hits::total           16                       # number of LockedRMWWriteReq hits (Count)
system.cpu.dcache.LockedRMWWriteReq.accesses::cpu.data           16                       # number of LockedRMWWriteReq accesses(hits+misses) (Count)
system.cpu.dcache.LockedRMWWriteReq.accesses::total           16                       # number of LockedRMWWriteReq accesses(hits+misses) (Count)
system.cpu.dcache.ReadReq.hits::cpu.data      1299563                       # number of ReadReq hits (Count)
system.cpu.dcache.ReadReq.hits::total         1299563                       # number of ReadReq hits (Count)
system.cpu.dcache.ReadReq.misses::cpu.data        50869                       # number of ReadReq misses (Count)
system.cpu.dcache.ReadReq.misses::total         50869                       # number of ReadReq misses (Count)
system.cpu.dcache.ReadReq.missLatency::cpu.data    779863000                       # number of ReadReq miss ticks (Tick)
system.cpu.dcache.ReadReq.missLatency::total    779863000                       # number of ReadReq miss ticks (Tick)
system.cpu.dcache.ReadReq.accesses::cpu.data      1350432                       # number of ReadReq accesses(hits+misses) (Count)
system.cpu.dcache.ReadReq.accesses::total      1350432                       # number of ReadReq accesses(hits+misses) (Count)
system.cpu.dcache.ReadReq.missRate::cpu.data     0.037669                       # miss rate for ReadReq accesses (Ratio)
system.cpu.dcache.ReadReq.missRate::total     0.037669                       # miss rate for ReadReq accesses (Ratio)
system.cpu.dcache.ReadReq.avgMissLatency::cpu.data 15330.810513                       # average ReadReq miss latency ((Tick/Count))
system.cpu.dcache.ReadReq.avgMissLatency::total 15330.810513                       # average ReadReq miss latency ((Tick/Count))
system.cpu.dcache.ReadReq.mshrMisses::cpu.data        50869                       # number of ReadReq MSHR misses (Count)
system.cpu.dcache.ReadReq.mshrMisses::total        50869                       # number of ReadReq MSHR misses (Count)
system.cpu.dcache.ReadReq.mshrMissLatency::cpu.data    728994000                       # number of ReadReq MSHR miss ticks (Tick)
system.cpu.dcache.ReadReq.mshrMissLatency::total    728994000                       # number of ReadReq MSHR miss ticks (Tick)
system.cpu.dcache.ReadReq.mshrMissRate::cpu.data     0.037669                       # mshr miss rate for ReadReq accesses (Ratio)
system.cpu.dcache.ReadReq.mshrMissRate::total     0.037669                       # mshr miss rate for ReadReq accesses (Ratio)
system.cpu.dcache.ReadReq.avgMshrMissLatency::cpu.data 14330.810513                       # average ReadReq mshr miss latency ((Tick/Count))
system.cpu.dcache.ReadReq.avgMshrMissLatency::total 14330.810513                       # average ReadReq mshr miss latency ((Tick/Count))
system.cpu.dcache.WriteLineReq.hits::cpu.data        17398                       # number of WriteLineReq hits (Count)
system.cpu.dcache.WriteLineReq.hits::total        17398                       # number of WriteLineReq hits (Count)
system.cpu.dcache.WriteLineReq.misses::cpu.data     51831858                       # number of WriteLineReq misses (Count)
system.cpu.dcache.WriteLineReq.misses::total     51831858                       # number of WriteLineReq misses (Count)
system.cpu.dcache.WriteLineReq.missLatency::cpu.data 1606752842000                       # number of WriteLineReq miss ticks (Tick)
system.cpu.dcache.WriteLineReq.missLatency::total 1606752842000                       # number of WriteLineReq miss ticks (Tick)
system.cpu.dcache.WriteLineReq.accesses::cpu.data     51849256                       # number of WriteLineReq accesses(hits+misses) (Count)
system.cpu.dcache.WriteLineReq.accesses::total     51849256                       # number of WriteLineReq accesses(hits+misses) (Count)
system.cpu.dcache.WriteLineReq.missRate::cpu.data     0.999664                       # miss rate for WriteLineReq accesses (Ratio)
system.cpu.dcache.WriteLineReq.missRate::total     0.999664                       # miss rate for WriteLineReq accesses (Ratio)
system.cpu.dcache.WriteLineReq.avgMissLatency::cpu.data 30999.329447                       # average WriteLineReq miss latency ((Tick/Count))
system.cpu.dcache.WriteLineReq.avgMissLatency::total 30999.329447                       # average WriteLineReq miss latency ((Tick/Count))
system.cpu.dcache.WriteLineReq.mshrMisses::cpu.data     51831858                       # number of WriteLineReq MSHR misses (Count)
system.cpu.dcache.WriteLineReq.mshrMisses::total     51831858                       # number of WriteLineReq MSHR misses (Count)
system.cpu.dcache.WriteLineReq.mshrMissLatency::cpu.data 1554920984000                       # number of WriteLineReq MSHR miss ticks (Tick)
system.cpu.dcache.WriteLineReq.mshrMissLatency::total 1554920984000                       # number of WriteLineReq MSHR miss ticks (Tick)
system.cpu.dcache.WriteLineReq.mshrMissRate::cpu.data     0.999664                       # mshr miss rate for WriteLineReq accesses (Ratio)
system.cpu.dcache.WriteLineReq.mshrMissRate::total     0.999664                       # mshr miss rate for WriteLineReq accesses (Ratio)
system.cpu.dcache.WriteLineReq.avgMshrMissLatency::cpu.data 29999.329447                       # average WriteLineReq mshr miss latency ((Tick/Count))
system.cpu.dcache.WriteLineReq.avgMshrMissLatency::total 29999.329447                       # average WriteLineReq mshr miss latency ((Tick/Count))
system.cpu.dcache.WriteReq.hits::cpu.data       148400                       # number of WriteReq hits (Count)
system.cpu.dcache.WriteReq.hits::total         148400                       # number of WriteReq hits (Count)
system.cpu.dcache.WriteReq.misses::cpu.data        31159                       # number of WriteReq misses (Count)
system.cpu.dcache.WriteReq.misses::total        31159                       # number of WriteReq misses (Count)
system.cpu.dcache.WriteReq.missLatency::cpu.data   1654826000                       # number of WriteReq miss ticks (Tick)
system.cpu.dcache.WriteReq.missLatency::total   1654826000                       # number of WriteReq miss ticks (Tick)
system.cpu.dcache.WriteReq.accesses::cpu.data       179559                       # number of WriteReq accesses(hits+misses) (Count)
system.cpu.dcache.WriteReq.accesses::total       179559                       # number of WriteReq accesses(hits+misses) (Count)
system.cpu.dcache.WriteReq.missRate::cpu.data     0.173531                       # miss rate for WriteReq accesses (Ratio)
system.cpu.dcache.WriteReq.missRate::total     0.173531                       # miss rate for WriteReq accesses (Ratio)
system.cpu.dcache.WriteReq.avgMissLatency::cpu.data 53109.085657                       # average WriteReq miss latency ((Tick/Count))
system.cpu.dcache.WriteReq.avgMissLatency::total 53109.085657                       # average WriteReq miss latency ((Tick/Count))
system.cpu.dcache.WriteReq.mshrMisses::cpu.data        31159                       # number of WriteReq MSHR misses (Count)
system.cpu.dcache.WriteReq.mshrMisses::total        31159                       # number of WriteReq MSHR misses (Count)
system.cpu.dcache.WriteReq.mshrMissLatency::cpu.data   1623667000                       # number of WriteReq MSHR miss ticks (Tick)
system.cpu.dcache.WriteReq.mshrMissLatency::total   1623667000                       # number of WriteReq MSHR miss ticks (Tick)
system.cpu.dcache.WriteReq.mshrMissRate::cpu.data     0.173531                       # mshr miss rate for WriteReq accesses (Ratio)
system.cpu.dcache.WriteReq.mshrMissRate::total     0.173531                       # mshr miss rate for WriteReq accesses (Ratio)
system.cpu.dcache.WriteReq.avgMshrMissLatency::cpu.data 52109.085657                       # average WriteReq mshr miss latency ((Tick/Count))
system.cpu.dcache.WriteReq.avgMshrMissLatency::total 52109.085657                       # average WriteReq mshr miss latency ((Tick/Count))
system.cpu.dcache.power_state.pwrStateResidencyTicks::UNDEFINED 1682378691500                       # Cumulative time (in ticks) in various power states (Tick)
system.cpu.dcache.tags.tagsInUse           127.998634                       # Average ticks per tags in use ((Tick/Count))
system.cpu.dcache.tags.totalRefs             53379279                       # Total number of references to valid blocks. (Count)
system.cpu.dcache.tags.sampledRefs           51913894                       # Sample count of references to valid blocks. (Count)
system.cpu.dcache.tags.avgRefs               1.028227                       # Average number of references to valid blocks. ((Count/Count))
system.cpu.dcache.tags.warmupTick              246500                       # The tick when the warmup percentage was hit. (Tick)
system.cpu.dcache.tags.occupancies::cpu.data   127.998634                       # Average occupied blocks per tick, per requestor ((Count/Tick))
system.cpu.dcache.tags.avgOccs::cpu.data     0.999989                       # Average percentage of cache occupancy ((Ratio/Tick))
system.cpu.dcache.tags.avgOccs::total        0.999989                       # Average percentage of cache occupancy ((Ratio/Tick))
system.cpu.dcache.tags.occupanciesTaskId::1024          128                       # Occupied blocks per task id (Count)
system.cpu.dcache.tags.ageTaskId_1024::0          128                       # Occupied blocks per task id, per block age (Count)
system.cpu.dcache.tags.ratioOccsTaskId::1024            1                       # Ratio of occupied blocks and all blocks, per task id (Ratio)
system.cpu.dcache.tags.tagAccesses          105293173                       # Number of tag accesses (Count)
system.cpu.dcache.tags.dataAccesses         105293173                       # Number of data accesses (Count)
system.cpu.dcache.tags.power_state.pwrStateResidencyTicks::UNDEFINED 1682378691500                       # Cumulative time (in ticks) in various power states (Tick)
system.cpu.dtb_walker_cache.blockedCycles::no_mshrs            0                       # number of cycles access was blocked (Cycle)
system.cpu.dtb_walker_cache.blockedCycles::no_targets            0                       # number of cycles access was blocked (Cycle)
system.cpu.dtb_walker_cache.blockedCauses::no_mshrs            0                       # number of times access was blocked (Count)
system.cpu.dtb_walker_cache.blockedCauses::no_targets            0                       # number of times access was blocked (Count)
system.cpu.dtb_walker_cache.avgBlocked::no_mshrs          nan                       # average number of cycles each access was blocked ((Cycle/Count))
system.cpu.dtb_walker_cache.avgBlocked::no_targets          nan                       # average number of cycles each access was blocked ((Cycle/Count))
system.cpu.dtb_walker_cache.replacements            0                       # number of replacements (Count)
system.cpu.dtb_walker_cache.power_state.pwrStateResidencyTicks::UNDEFINED 1682378691500                       # Cumulative time (in ticks) in various power states (Tick)
system.cpu.dtb_walker_cache.tags.tagsInUse            0                       # Average ticks per tags in use ((Tick/Count))
system.cpu.dtb_walker_cache.tags.totalRefs            0                       # Total number of references to valid blocks. (Count)
system.cpu.dtb_walker_cache.tags.sampledRefs            0                       # Sample count of references to valid blocks. (Count)
system.cpu.dtb_walker_cache.tags.avgRefs          nan                       # Average number of references to valid blocks. ((Count/Count))
system.cpu.dtb_walker_cache.tags.warmupTick            0                       # The tick when the warmup percentage was hit. (Tick)
system.cpu.dtb_walker_cache.tags.tagAccesses            0                       # Number of tag accesses (Count)
system.cpu.dtb_walker_cache.tags.dataAccesses            0                       # Number of data accesses (Count)
system.cpu.dtb_walker_cache.tags.power_state.pwrStateResidencyTicks::UNDEFINED 1682378691500                       # Cumulative time (in ticks) in various power states (Tick)
system.cpu.exec_context.thread_0.numMatAluAccesses            0                       # Number of matrix alu accesses (Count)
system.cpu.exec_context.thread_0.numCallsReturns         7600                       # Number of times a function call or return occured (Count)
system.cpu.exec_context.thread_0.numMatInsts            0                       # Number of matrix instructions (Count)
system.cpu.exec_context.thread_0.numIdleCycles            0                       # Number of idle cycles (Cycle)
system.cpu.exec_context.thread_0.numBusyCycles   3364757383                       # Number of busy cycles (Cycle)
system.cpu.exec_context.thread_0.notIdleFraction            1                       # Percentage of non-idle cycles (Ratio)
system.cpu.exec_context.thread_0.idleFraction            0                       # Percentage of idle cycles (Ratio)
system.cpu.executeStats0.numInsts                   0                       # Number of executed instructions (Count)
system.cpu.executeStats0.numNop                     0                       # Number of nop insts executed (Count)
system.cpu.executeStats0.numBranches                0                       # Number of branches executed (Count)
system.cpu.executeStats0.numLoadInsts               0                       # Number of load instructions executed (Count)
system.cpu.executeStats0.numStoreInsts       53422797                       # Number of stores executed (Count)
system.cpu.executeStats0.instRate                   0                       # Inst execution rate ((Count/Cycle))
system.cpu.executeStats0.numFpAluAccesses     51877766                       # Number of float alu accesses (Count)
system.cpu.executeStats0.numFpRegReads       51881646                       # Number of times the floating registers were read (Count)
system.cpu.executeStats0.numFpRegWrites          4175                       # Number of times the floating registers were written (Count)
system.cpu.executeStats0.numIntAluAccesses     96019925                       # Number of integer alu accesses (Count)
system.cpu.executeStats0.numIntRegReads      99734757                       # Number of times the integer registers were read (Count)
system.cpu.executeStats0.numIntRegWrites     30763552                       # Number of times the integer registers were written (Count)
system.cpu.executeStats0.numMemRefs          53422797                       # Number of memory refs (Count)
system.cpu.executeStats0.numMiscRegReads     66518931                       # Number of times the Misc registers were read (Count)
system.cpu.executeStats0.numVecAluAccesses            0                       # Number of vector alu accesses (Count)
system.cpu.executeStats0.numDiscardedOps            0                       # Number of ops (including micro ops) which were discarded before commit (Count)
system.cpu.fetchStats0.numInsts              50000120                       # Number of instructions fetched (thread level) (Count)
system.cpu.fetchStats0.numOps                96025459                       # Number of ops (including micro ops) fetched (thread level) (Count)
system.cpu.fetchStats0.fetchRate             0.014860                       # Number of inst fetches per cycle ((Count/Cycle))
system.cpu.fetchStats0.numBranches            6543942                       # Number of branches fetched (Count)
system.cpu.fetchStats0.branchRate            0.001945                       # Number of branch fetches per cycle (Ratio)
system.cpu.fetchStats0.numFetchSuspends             0                       # Number of times Execute suspended instruction fetching (Count)
system.cpu.icache.demandHits::cpu.inst       70764634                       # number of demand (read+write) hits (Count)
system.cpu.icache.demandHits::total          70764634                       # number of demand (read+write) hits (Count)
system.cpu.icache.overallHits::cpu.inst      70764634                       # number of overall hits (Count)
system.cpu.icache.overallHits::total         70764634                       # number of overall hits (Count)
system.cpu.icache.demandMisses::cpu.inst        48058                       # number of demand (read+write) misses (Count)
system.cpu.icache.demandMisses::total           48058                       # number of demand (read+write) misses (Count)
system.cpu.icache.overallMisses::cpu.inst        48058                       # number of overall misses (Count)
system.cpu.icache.overallMisses::total          48058                       # number of overall misses (Count)
system.cpu.icache.demandMissLatency::cpu.inst    964060000                       # number of demand (read+write) miss ticks (Tick)
system.cpu.icache.demandMissLatency::total    964060000                       # number of demand (read+write) miss ticks (Tick)
system.cpu.icache.overallMissLatency::cpu.inst    964060000                       # number of overall miss ticks (Tick)
system.cpu.icache.overallMissLatency::total    964060000                       # number of overall miss ticks (Tick)
system.cpu.icache.demandAccesses::cpu.inst     70812692                       # number of demand (read+write) accesses (Count)
system.cpu.icache.demandAccesses::total      70812692                       # number of demand (read+write) accesses (Count)
system.cpu.icache.overallAccesses::cpu.inst     70812692                       # number of overall (read+write) accesses (Count)
system.cpu.icache.overallAccesses::total     70812692                       # number of overall (read+write) accesses (Count)
system.cpu.icache.demandMissRate::cpu.inst     0.000679                       # miss rate for demand accesses (Ratio)
system.cpu.icache.demandMissRate::total      0.000679                       # miss rate for demand accesses (Ratio)
system.cpu.icache.overallMissRate::cpu.inst     0.000679                       # miss rate for overall accesses (Ratio)
system.cpu.icache.overallMissRate::total     0.000679                       # miss rate for overall accesses (Ratio)
system.cpu.icache.demandAvgMissLatency::cpu.inst 20060.343751                       # average overall miss latency in ticks ((Tick/Count))
system.cpu.icache.demandAvgMissLatency::total 20060.343751                       # average overall miss latency in ticks ((Tick/Count))
system.cpu.icache.overallAvgMissLatency::cpu.inst 20060.343751                       # average overall miss latency ((Tick/Count))
system.cpu.icache.overallAvgMissLatency::total 20060.343751                       # average overall miss latency ((Tick/Count))
system.cpu.icache.blockedCycles::no_mshrs            0                       # number of cycles access was blocked (Cycle)
system.cpu.icache.blockedCycles::no_targets            0                       # number of cycles access was blocked (Cycle)
system.cpu.icache.blockedCauses::no_mshrs            0                       # number of times access was blocked (Count)
system.cpu.icache.blockedCauses::no_targets            0                       # number of times access was blocked (Count)
system.cpu.icache.avgBlocked::no_mshrs            nan                       # average number of cycles each access was blocked ((Cycle/Count))
system.cpu.icache.avgBlocked::no_targets          nan                       # average number of cycles each access was blocked ((Cycle/Count))
system.cpu.icache.writebacks::writebacks        47930                       # number of writebacks (Count)
system.cpu.icache.writebacks::total             47930                       # number of writebacks (Count)
system.cpu.icache.demandMshrMisses::cpu.inst        48058                       # number of demand (read+write) MSHR misses (Count)
system.cpu.icache.demandMshrMisses::total        48058                       # number of demand (read+write) MSHR misses (Count)
system.cpu.icache.overallMshrMisses::cpu.inst        48058                       # number of overall MSHR misses (Count)
system.cpu.icache.overallMshrMisses::total        48058                       # number of overall MSHR misses (Count)
system.cpu.icache.demandMshrMissLatency::cpu.inst    916002000                       # number of demand (read+write) MSHR miss ticks (Tick)
system.cpu.icache.demandMshrMissLatency::total    916002000                       # number of demand (read+write) MSHR miss ticks (Tick)
system.cpu.icache.overallMshrMissLatency::cpu.inst    916002000                       # number of overall MSHR miss ticks (Tick)
system.cpu.icache.overallMshrMissLatency::total    916002000                       # number of overall MSHR miss ticks (Tick)
system.cpu.icache.demandMshrMissRate::cpu.inst     0.000679                       # mshr miss ratio for demand accesses (Ratio)
system.cpu.icache.demandMshrMissRate::total     0.000679                       # mshr miss ratio for demand accesses (Ratio)
system.cpu.icache.overallMshrMissRate::cpu.inst     0.000679                       # mshr miss ratio for overall accesses (Ratio)
system.cpu.icache.overallMshrMissRate::total     0.000679                       # mshr miss ratio for overall accesses (Ratio)
system.cpu.icache.demandAvgMshrMissLatency::cpu.inst 19060.343751                       # average overall mshr miss latency ((Tick/Count))
system.cpu.icache.demandAvgMshrMissLatency::total 19060.343751                       # average overall mshr miss latency ((Tick/Count))
system.cpu.icache.overallAvgMshrMissLatency::cpu.inst 19060.343751                       # average overall mshr miss latency ((Tick/Count))
system.cpu.icache.overallAvgMshrMissLatency::total 19060.343751                       # average overall mshr miss latency ((Tick/Count))
system.cpu.icache.replacements                  47930                       # number of replacements (Count)
system.cpu.icache.ReadReq.hits::cpu.inst     70764634                       # number of ReadReq hits (Count)
system.cpu.icache.ReadReq.hits::total        70764634                       # number of ReadReq hits (Count)
system.cpu.icache.ReadReq.misses::cpu.inst        48058                       # number of ReadReq misses (Count)
system.cpu.icache.ReadReq.misses::total         48058                       # number of ReadReq misses (Count)
system.cpu.icache.ReadReq.missLatency::cpu.inst    964060000                       # number of ReadReq miss ticks (Tick)
system.cpu.icache.ReadReq.missLatency::total    964060000                       # number of ReadReq miss ticks (Tick)
system.cpu.icache.ReadReq.accesses::cpu.inst     70812692                       # number of ReadReq accesses(hits+misses) (Count)
system.cpu.icache.ReadReq.accesses::total     70812692                       # number of ReadReq accesses(hits+misses) (Count)
system.cpu.icache.ReadReq.missRate::cpu.inst     0.000679                       # miss rate for ReadReq accesses (Ratio)
system.cpu.icache.ReadReq.missRate::total     0.000679                       # miss rate for ReadReq accesses (Ratio)
system.cpu.icache.ReadReq.avgMissLatency::cpu.inst 20060.343751                       # average ReadReq miss latency ((Tick/Count))
system.cpu.icache.ReadReq.avgMissLatency::total 20060.343751                       # average ReadReq miss latency ((Tick/Count))
system.cpu.icache.ReadReq.mshrMisses::cpu.inst        48058                       # number of ReadReq MSHR misses (Count)
system.cpu.icache.ReadReq.mshrMisses::total        48058                       # number of ReadReq MSHR misses (Count)
system.cpu.icache.ReadReq.mshrMissLatency::cpu.inst    916002000                       # number of ReadReq MSHR miss ticks (Tick)
system.cpu.icache.ReadReq.mshrMissLatency::total    916002000                       # number of ReadReq MSHR miss ticks (Tick)
system.cpu.icache.ReadReq.mshrMissRate::cpu.inst     0.000679                       # mshr miss rate for ReadReq accesses (Ratio)
system.cpu.icache.ReadReq.mshrMissRate::total     0.000679                       # mshr miss rate for ReadReq accesses (Ratio)
system.cpu.icache.ReadReq.avgMshrMissLatency::cpu.inst 19060.343751                       # average ReadReq mshr miss latency ((Tick/Count))
system.cpu.icache.ReadReq.avgMshrMissLatency::total 19060.343751                       # average ReadReq mshr miss latency ((Tick/Count))
system.cpu.icache.power_state.pwrStateResidencyTicks::UNDEFINED 1682378691500                       # Cumulative time (in ticks) in various power states (Tick)
system.cpu.icache.tags.tagsInUse           127.999001                       # Average ticks per tags in use ((Tick/Count))
system.cpu.icache.tags.totalRefs             70812692                       # Total number of references to valid blocks. (Count)
system.cpu.icache.tags.sampledRefs              48058                       # Sample count of references to valid blocks. (Count)
system.cpu.icache.tags.avgRefs            1473.483957                       # Average number of references to valid blocks. ((Count/Count))
system.cpu.icache.tags.warmupTick               87500                       # The tick when the warmup percentage was hit. (Tick)
system.cpu.icache.tags.occupancies::cpu.inst   127.999001                       # Average occupied blocks per tick, per requestor ((Count/Tick))
system.cpu.icache.tags.avgOccs::cpu.inst     0.999992                       # Average percentage of cache occupancy ((Ratio/Tick))
system.cpu.icache.tags.avgOccs::total        0.999992                       # Average percentage of cache occupancy ((Ratio/Tick))
system.cpu.icache.tags.occupanciesTaskId::1024          128                       # Occupied blocks per task id (Count)
system.cpu.icache.tags.ageTaskId_1024::4          128                       # Occupied blocks per task id, per block age (Count)
system.cpu.icache.tags.ratioOccsTaskId::1024            1                       # Ratio of occupied blocks and all blocks, per task id (Ratio)
system.cpu.icache.tags.tagAccesses           70860750                       # Number of tag accesses (Count)
system.cpu.icache.tags.dataAccesses          70860750                       # Number of data accesses (Count)
system.cpu.icache.tags.power_state.pwrStateResidencyTicks::UNDEFINED 1682378691500                       # Cumulative time (in ticks) in various power states (Tick)
system.cpu.interrupts.clk_domain.clock           8000                       # Clock period in ticks (Tick)
system.cpu.itb_walker_cache.blockedCycles::no_mshrs            0                       # number of cycles access was blocked (Cycle)
system.cpu.itb_walker_cache.blockedCycles::no_targets            0                       # number of cycles access was blocked (Cycle)
system.cpu.itb_walker_cache.blockedCauses::no_mshrs            0                       # number of times access was blocked (Count)
system.cpu.itb_walker_cache.blockedCauses::no_targets            0                       # number of times access was blocked (Count)
system.cpu.itb_walker_cache.avgBlocked::no_mshrs          nan                       # average number of cycles each access was blocked ((Cycle/Count))
system.cpu.itb_walker_cache.avgBlocked::no_targets          nan                       # average number of cycles each access was blocked ((Cycle/Count))
system.cpu.itb_walker_cache.replacements            0                       # number of replacements (Count)
system.cpu.itb_walker_cache.power_state.pwrStateResidencyTicks::UNDEFINED 1682378691500                       # Cumulative time (in ticks) in various power states (Tick)
system.cpu.itb_walker_cache.tags.tagsInUse            0                       # Average ticks per tags in use ((Tick/Count))
system.cpu.itb_walker_cache.tags.totalRefs            0                       # Total number of references to valid blocks. (Count)
system.cpu.itb_walker_cache.tags.sampledRefs            0                       # Sample count of references to valid blocks. (Count)
system.cpu.itb_walker_cache.tags.avgRefs          nan                       # Average number of references to valid blocks. ((Count/Count))
system.cpu.itb_walker_cache.tags.warmupTick            0                       # The tick when the warmup percentage was hit. (Tick)
system.cpu.itb_walker_cache.tags.tagAccesses            0                       # Number of tag accesses (Count)
system.cpu.itb_walker_cache.tags.dataAccesses            0                       # Number of data accesses (Count)
system.cpu.itb_walker_cache.tags.power_state.pwrStateResidencyTicks::UNDEFINED 1682378691500                       # Cumulative time (in ticks) in various power states (Tick)
system.cpu.mmu.dtb.rdAccesses                 1350448                       # TLB accesses on read requests (Count)
system.cpu.mmu.dtb.wrAccesses                52072786                       # TLB accesses on write requests (Count)
system.cpu.mmu.dtb.rdMisses                        81                       # TLB misses on read requests (Count)
system.cpu.mmu.dtb.wrMisses                    145306                       # TLB misses on write requests (Count)
system.cpu.mmu.dtb.walker.power_state.pwrStateResidencyTicks::UNDEFINED 1682378691500                       # Cumulative time (in ticks) in various power states (Tick)
system.cpu.mmu.itb.rdAccesses                       0                       # TLB accesses on read requests (Count)
system.cpu.mmu.itb.wrAccesses                70812692                       # TLB accesses on write requests (Count)
system.cpu.mmu.itb.rdMisses                         0                       # TLB misses on read requests (Count)
system.cpu.mmu.itb.wrMisses                        63                       # TLB misses on write requests (Count)
system.cpu.mmu.itb.walker.power_state.pwrStateResidencyTicks::UNDEFINED 1682378691500                       # Cumulative time (in ticks) in various power states (Tick)
system.cpu.power_state.pwrStateResidencyTicks::ON 1682378691500                       # Cumulative time (in ticks) in various power states (Tick)
system.cpu.thread_0.numInsts                        0                       # Number of Instructions committed (Count)
system.cpu.thread_0.numOps                          0                       # Number of Ops committed (Count)
system.cpu.thread_0.numMemRefs                      0                       # Number of Memory References (Count)
system.cpu.workload.numSyscalls                   108                       # Number of system calls (Count)
system.cpu_clk_domain.clock                       500                       # Clock period in ticks (Tick)
system.cpu_voltage_domain.voltage                   1                       # Voltage in Volts (Volt)
system.l2.demandHits::cpu.inst                  42791                       # number of demand (read+write) hits (Count)
system.l2.demandHits::cpu.data                  62117                       # number of demand (read+write) hits (Count)
system.l2.demandHits::total                    104908                       # number of demand (read+write) hits (Count)
system.l2.overallHits::cpu.inst                 42791                       # number of overall hits (Count)
system.l2.overallHits::cpu.data                 62117                       # number of overall hits (Count)
system.l2.overallHits::total                   104908                       # number of overall hits (Count)
system.l2.demandMisses::cpu.inst                 5267                       # number of demand (read+write) misses (Count)
system.l2.demandMisses::cpu.data                19919                       # number of demand (read+write) misses (Count)
system.l2.demandMisses::total                   25186                       # number of demand (read+write) misses (Count)
system.l2.overallMisses::cpu.inst                5267                       # number of overall misses (Count)
system.l2.overallMisses::cpu.data               19919                       # number of overall misses (Count)
system.l2.overallMisses::total                  25186                       # number of overall misses (Count)
system.l2.demandMissLatency::cpu.inst       394596500                       # number of demand (read+write) miss ticks (Tick)
system.l2.demandMissLatency::cpu.data      1534693000                       # number of demand (read+write) miss ticks (Tick)
system.l2.demandMissLatency::total         1929289500                       # number of demand (read+write) miss ticks (Tick)
system.l2.overallMissLatency::cpu.inst      394596500                       # number of overall miss ticks (Tick)
system.l2.overallMissLatency::cpu.data     1534693000                       # number of overall miss ticks (Tick)
system.l2.overallMissLatency::total        1929289500                       # number of overall miss ticks (Tick)
system.l2.demandAccesses::cpu.inst              48058                       # number of demand (read+write) accesses (Count)
system.l2.demandAccesses::cpu.data              82036                       # number of demand (read+write) accesses (Count)
system.l2.demandAccesses::total                130094                       # number of demand (read+write) accesses (Count)
system.l2.overallAccesses::cpu.inst             48058                       # number of overall (read+write) accesses (Count)
system.l2.overallAccesses::cpu.data             82036                       # number of overall (read+write) accesses (Count)
system.l2.overallAccesses::total               130094                       # number of overall (read+write) accesses (Count)
system.l2.demandMissRate::cpu.inst           0.109597                       # miss rate for demand accesses (Ratio)
system.l2.demandMissRate::cpu.data           0.242808                       # miss rate for demand accesses (Ratio)
system.l2.demandMissRate::total              0.193598                       # miss rate for demand accesses (Ratio)
system.l2.overallMissRate::cpu.inst          0.109597                       # miss rate for overall accesses (Ratio)
system.l2.overallMissRate::cpu.data          0.242808                       # miss rate for overall accesses (Ratio)
system.l2.overallMissRate::total             0.193598                       # miss rate for overall accesses (Ratio)
system.l2.demandAvgMissLatency::cpu.inst 74918.644390                       # average overall miss latency in ticks ((Tick/Count))
system.l2.demandAvgMissLatency::cpu.data 77046.689091                       # average overall miss latency in ticks ((Tick/Count))
system.l2.demandAvgMissLatency::total    76601.663623                       # average overall miss latency in ticks ((Tick/Count))
system.l2.overallAvgMissLatency::cpu.inst 74918.644390                       # average overall miss latency ((Tick/Count))
system.l2.overallAvgMissLatency::cpu.data 77046.689091                       # average overall miss latency ((Tick/Count))
system.l2.overallAvgMissLatency::total   76601.663623                       # average overall miss latency ((Tick/Count))
system.l2.blockedCycles::no_mshrs                   0                       # number of cycles access was blocked (Cycle)
system.l2.blockedCycles::no_targets                 0                       # number of cycles access was blocked (Cycle)
system.l2.blockedCauses::no_mshrs                   0                       # number of times access was blocked (Count)
system.l2.blockedCauses::no_targets                 0                       # number of times access was blocked (Count)
system.l2.avgBlocked::no_mshrs                    nan                       # average number of cycles each access was blocked ((Cycle/Count))
system.l2.avgBlocked::no_targets                  nan                       # average number of cycles each access was blocked ((Cycle/Count))
system.l2.writebacks::writebacks             50800231                       # number of writebacks (Count)
system.l2.writebacks::total                  50800231                       # number of writebacks (Count)
system.l2.demandMshrMisses::cpu.inst             5267                       # number of demand (read+write) MSHR misses (Count)
system.l2.demandMshrMisses::cpu.data            19919                       # number of demand (read+write) MSHR misses (Count)
system.l2.demandMshrMisses::total               25186                       # number of demand (read+write) MSHR misses (Count)
system.l2.overallMshrMisses::cpu.inst            5267                       # number of overall MSHR misses (Count)
system.l2.overallMshrMisses::cpu.data           19919                       # number of overall MSHR misses (Count)
system.l2.overallMshrMisses::total              25186                       # number of overall MSHR misses (Count)
system.l2.demandMshrMissLatency::cpu.inst    341926500                       # number of demand (read+write) MSHR miss ticks (Tick)
system.l2.demandMshrMissLatency::cpu.data   1335503000                       # number of demand (read+write) MSHR miss ticks (Tick)
system.l2.demandMshrMissLatency::total     1677429500                       # number of demand (read+write) MSHR miss ticks (Tick)
system.l2.overallMshrMissLatency::cpu.inst    341926500                       # number of overall MSHR miss ticks (Tick)
system.l2.overallMshrMissLatency::cpu.data   1335503000                       # number of overall MSHR miss ticks (Tick)
system.l2.overallMshrMissLatency::total    1677429500                       # number of overall MSHR miss ticks (Tick)
system.l2.demandMshrMissRate::cpu.inst       0.109597                       # mshr miss ratio for demand accesses (Ratio)
system.l2.demandMshrMissRate::cpu.data       0.242808                       # mshr miss ratio for demand accesses (Ratio)
system.l2.demandMshrMissRate::total          0.193598                       # mshr miss ratio for demand accesses (Ratio)
system.l2.overallMshrMissRate::cpu.inst      0.109597                       # mshr miss ratio for overall accesses (Ratio)
system.l2.overallMshrMissRate::cpu.data      0.242808                       # mshr miss ratio for overall accesses (Ratio)
system.l2.overallMshrMissRate::total         0.193598                       # mshr miss ratio for overall accesses (Ratio)
system.l2.demandAvgMshrMissLatency::cpu.inst 64918.644390                       # average overall mshr miss latency ((Tick/Count))
system.l2.demandAvgMshrMissLatency::cpu.data 67046.689091                       # average overall mshr miss latency ((Tick/Count))
system.l2.demandAvgMshrMissLatency::total 66601.663623                       # average overall mshr miss latency ((Tick/Count))
system.l2.overallAvgMshrMissLatency::cpu.inst 64918.644390                       # average overall mshr miss latency ((Tick/Count))
system.l2.overallAvgMshrMissLatency::cpu.data 67046.689091                       # average overall mshr miss latency ((Tick/Count))
system.l2.overallAvgMshrMissLatency::total 66601.663623                       # average overall mshr miss latency ((Tick/Count))
system.l2.replacements                       50806704                       # number of replacements (Count)
system.l2.InvalidateReq.hits::cpu.data           1931                       # number of InvalidateReq hits (Count)
system.l2.InvalidateReq.hits::total              1931                       # number of InvalidateReq hits (Count)
system.l2.InvalidateReq.misses::cpu.data     51829927                       # number of InvalidateReq misses (Count)
system.l2.InvalidateReq.misses::total        51829927                       # number of InvalidateReq misses (Count)
system.l2.InvalidateReq.accesses::cpu.data     51831858                       # number of InvalidateReq accesses(hits+misses) (Count)
system.l2.InvalidateReq.accesses::total      51831858                       # number of InvalidateReq accesses(hits+misses) (Count)
system.l2.InvalidateReq.missRate::cpu.data     0.999963                       # miss rate for InvalidateReq accesses (Ratio)
system.l2.InvalidateReq.missRate::total      0.999963                       # miss rate for InvalidateReq accesses (Ratio)
system.l2.InvalidateReq.mshrMisses::cpu.data     51829927                       # number of InvalidateReq MSHR misses (Count)
system.l2.InvalidateReq.mshrMisses::total     51829927                       # number of InvalidateReq MSHR misses (Count)
system.l2.InvalidateReq.mshrMissLatency::cpu.data 958853651500                       # number of InvalidateReq MSHR miss ticks (Tick)
system.l2.InvalidateReq.mshrMissLatency::total 958853651500                       # number of InvalidateReq MSHR miss ticks (Tick)
system.l2.InvalidateReq.mshrMissRate::cpu.data     0.999963                       # mshr miss rate for InvalidateReq accesses (Ratio)
system.l2.InvalidateReq.mshrMissRate::total     0.999963                       # mshr miss rate for InvalidateReq accesses (Ratio)
system.l2.InvalidateReq.avgMshrMissLatency::cpu.data 18500.000039                       # average InvalidateReq mshr miss latency ((Tick/Count))
system.l2.InvalidateReq.avgMshrMissLatency::total 18500.000039                       # average InvalidateReq mshr miss latency ((Tick/Count))
system.l2.ReadCleanReq.hits::cpu.inst           42791                       # number of ReadCleanReq hits (Count)
system.l2.ReadCleanReq.hits::total              42791                       # number of ReadCleanReq hits (Count)
system.l2.ReadCleanReq.misses::cpu.inst          5267                       # number of ReadCleanReq misses (Count)
system.l2.ReadCleanReq.misses::total             5267                       # number of ReadCleanReq misses (Count)
system.l2.ReadCleanReq.missLatency::cpu.inst    394596500                       # number of ReadCleanReq miss ticks (Tick)
system.l2.ReadCleanReq.missLatency::total    394596500                       # number of ReadCleanReq miss ticks (Tick)
system.l2.ReadCleanReq.accesses::cpu.inst        48058                       # number of ReadCleanReq accesses(hits+misses) (Count)
system.l2.ReadCleanReq.accesses::total          48058                       # number of ReadCleanReq accesses(hits+misses) (Count)
system.l2.ReadCleanReq.missRate::cpu.inst     0.109597                       # miss rate for ReadCleanReq accesses (Ratio)
system.l2.ReadCleanReq.missRate::total       0.109597                       # miss rate for ReadCleanReq accesses (Ratio)
system.l2.ReadCleanReq.avgMissLatency::cpu.inst 74918.644390                       # average ReadCleanReq miss latency ((Tick/Count))
system.l2.ReadCleanReq.avgMissLatency::total 74918.644390                       # average ReadCleanReq miss latency ((Tick/Count))
system.l2.ReadCleanReq.mshrMisses::cpu.inst         5267                       # number of ReadCleanReq MSHR misses (Count)
system.l2.ReadCleanReq.mshrMisses::total         5267                       # number of ReadCleanReq MSHR misses (Count)
system.l2.ReadCleanReq.mshrMissLatency::cpu.inst    341926500                       # number of ReadCleanReq MSHR miss ticks (Tick)
system.l2.ReadCleanReq.mshrMissLatency::total    341926500                       # number of ReadCleanReq MSHR miss ticks (Tick)
system.l2.ReadCleanReq.mshrMissRate::cpu.inst     0.109597                       # mshr miss rate for ReadCleanReq accesses (Ratio)
system.l2.ReadCleanReq.mshrMissRate::total     0.109597                       # mshr miss rate for ReadCleanReq accesses (Ratio)
system.l2.ReadCleanReq.avgMshrMissLatency::cpu.inst 64918.644390                       # average ReadCleanReq mshr miss latency ((Tick/Count))
system.l2.ReadCleanReq.avgMshrMissLatency::total 64918.644390                       # average ReadCleanReq mshr miss latency ((Tick/Count))
system.l2.ReadExReq.hits::cpu.data              12347                       # number of ReadExReq hits (Count)
system.l2.ReadExReq.hits::total                 12347                       # number of ReadExReq hits (Count)
system.l2.ReadExReq.misses::cpu.data            18820                       # number of ReadExReq misses (Count)
system.l2.ReadExReq.misses::total               18820                       # number of ReadExReq misses (Count)
system.l2.ReadExReq.missLatency::cpu.data   1447068000                       # number of ReadExReq miss ticks (Tick)
system.l2.ReadExReq.missLatency::total     1447068000                       # number of ReadExReq miss ticks (Tick)
system.l2.ReadExReq.accesses::cpu.data          31167                       # number of ReadExReq accesses(hits+misses) (Count)
system.l2.ReadExReq.accesses::total             31167                       # number of ReadExReq accesses(hits+misses) (Count)
system.l2.ReadExReq.missRate::cpu.data       0.603844                       # miss rate for ReadExReq accesses (Ratio)
system.l2.ReadExReq.missRate::total          0.603844                       # miss rate for ReadExReq accesses (Ratio)
system.l2.ReadExReq.avgMissLatency::cpu.data 76889.904357                       # average ReadExReq miss latency ((Tick/Count))
system.l2.ReadExReq.avgMissLatency::total 76889.904357                       # average ReadExReq miss latency ((Tick/Count))
system.l2.ReadExReq.mshrMisses::cpu.data        18820                       # number of ReadExReq MSHR misses (Count)
system.l2.ReadExReq.mshrMisses::total           18820                       # number of ReadExReq MSHR misses (Count)
system.l2.ReadExReq.mshrMissLatency::cpu.data   1258868000                       # number of ReadExReq MSHR miss ticks (Tick)
system.l2.ReadExReq.mshrMissLatency::total   1258868000                       # number of ReadExReq MSHR miss ticks (Tick)
system.l2.ReadExReq.mshrMissRate::cpu.data     0.603844                       # mshr miss rate for ReadExReq accesses (Ratio)
system.l2.ReadExReq.mshrMissRate::total      0.603844                       # mshr miss rate for ReadExReq accesses (Ratio)
system.l2.ReadExReq.avgMshrMissLatency::cpu.data 66889.904357                       # average ReadExReq mshr miss latency ((Tick/Count))
system.l2.ReadExReq.avgMshrMissLatency::total 66889.904357                       # average ReadExReq mshr miss latency ((Tick/Count))
system.l2.ReadSharedReq.hits::cpu.data          49770                       # number of ReadSharedReq hits (Count)
system.l2.ReadSharedReq.hits::total             49770                       # number of ReadSharedReq hits (Count)
system.l2.ReadSharedReq.misses::cpu.data         1099                       # number of ReadSharedReq misses (Count)
system.l2.ReadSharedReq.misses::total            1099                       # number of ReadSharedReq misses (Count)
system.l2.ReadSharedReq.missLatency::cpu.data     87625000                       # number of ReadSharedReq miss ticks (Tick)
system.l2.ReadSharedReq.missLatency::total     87625000                       # number of ReadSharedReq miss ticks (Tick)
system.l2.ReadSharedReq.accesses::cpu.data        50869                       # number of ReadSharedReq accesses(hits+misses) (Count)
system.l2.ReadSharedReq.accesses::total         50869                       # number of ReadSharedReq accesses(hits+misses) (Count)
system.l2.ReadSharedReq.missRate::cpu.data     0.021605                       # miss rate for ReadSharedReq accesses (Ratio)
system.l2.ReadSharedReq.missRate::total      0.021605                       # miss rate for ReadSharedReq accesses (Ratio)
system.l2.ReadSharedReq.avgMissLatency::cpu.data 79731.574158                       # average ReadSharedReq miss latency ((Tick/Count))
system.l2.ReadSharedReq.avgMissLatency::total 79731.574158                       # average ReadSharedReq miss latency ((Tick/Count))
system.l2.ReadSharedReq.mshrMisses::cpu.data         1099                       # number of ReadSharedReq MSHR misses (Count)
system.l2.ReadSharedReq.mshrMisses::total         1099                       # number of ReadSharedReq MSHR misses (Count)
system.l2.ReadSharedReq.mshrMissLatency::cpu.data     76635000                       # number of ReadSharedReq MSHR miss ticks (Tick)
system.l2.ReadSharedReq.mshrMissLatency::total     76635000                       # number of ReadSharedReq MSHR miss ticks (Tick)
system.l2.ReadSharedReq.mshrMissRate::cpu.data     0.021605                       # mshr miss rate for ReadSharedReq accesses (Ratio)
system.l2.ReadSharedReq.mshrMissRate::total     0.021605                       # mshr miss rate for ReadSharedReq accesses (Ratio)
system.l2.ReadSharedReq.avgMshrMissLatency::cpu.data 69731.574158                       # average ReadSharedReq mshr miss latency ((Tick/Count))
system.l2.ReadSharedReq.avgMshrMissLatency::total 69731.574158                       # average ReadSharedReq mshr miss latency ((Tick/Count))
system.l2.WritebackClean.hits::writebacks        47930                       # number of WritebackClean hits (Count)
system.l2.WritebackClean.hits::total            47930                       # number of WritebackClean hits (Count)
system.l2.WritebackClean.accesses::writebacks        47930                       # number of WritebackClean accesses(hits+misses) (Count)
system.l2.WritebackClean.accesses::total        47930                       # number of WritebackClean accesses(hits+misses) (Count)
system.l2.WritebackDirty.hits::writebacks     51873321                       # number of WritebackDirty hits (Count)
system.l2.WritebackDirty.hits::total         51873321                       # number of WritebackDirty hits (Count)
system.l2.WritebackDirty.accesses::writebacks     51873321                       # number of WritebackDirty accesses(hits+misses) (Count)
system.l2.WritebackDirty.accesses::total     51873321                       # number of WritebackDirty accesses(hits+misses) (Count)
system.l2.power_state.pwrStateResidencyTicks::UNDEFINED 1682378691500                       # Cumulative time (in ticks) in various power states (Tick)
system.l2.tags.tagsInUse                 1032371.347461                       # Average ticks per tags in use ((Tick/Count))
system.l2.tags.totalRefs                     52093721                       # Total number of references to valid blocks. (Count)
system.l2.tags.sampledRefs                   51857211                       # Sample count of references to valid blocks. (Count)
system.l2.tags.avgRefs                       1.004561                       # Average number of references to valid blocks. ((Count/Count))
system.l2.tags.warmupTick                       77000                       # The tick when the warmup percentage was hit. (Tick)
system.l2.tags.occupancies::writebacks   1031953.062809                       # Average occupied blocks per tick, per requestor ((Count/Tick))
system.l2.tags.occupancies::cpu.inst        72.672874                       # Average occupied blocks per tick, per requestor ((Count/Tick))
system.l2.tags.occupancies::cpu.data       345.611766                       # Average occupied blocks per tick, per requestor ((Count/Tick))
system.l2.tags.avgOccs::writebacks           0.984147                       # Average percentage of cache occupancy ((Ratio/Tick))
system.l2.tags.avgOccs::cpu.inst             0.000069                       # Average percentage of cache occupancy ((Ratio/Tick))
system.l2.tags.avgOccs::cpu.data             0.000330                       # Average percentage of cache occupancy ((Ratio/Tick))
system.l2.tags.avgOccs::total                0.984546                       # Average percentage of cache occupancy ((Ratio/Tick))
system.l2.tags.occupanciesTaskId::1024        1048576                       # Occupied blocks per task id (Count)
system.l2.tags.ageTaskId_1024::0                  311                       # Occupied blocks per task id, per block age (Count)
system.l2.tags.ageTaskId_1024::1                 2790                       # Occupied blocks per task id, per block age (Count)
system.l2.tags.ageTaskId_1024::2                27907                       # Occupied blocks per task id, per block age (Count)
system.l2.tags.ageTaskId_1024::3               279070                       # Occupied blocks per task id, per block age (Count)
system.l2.tags.ageTaskId_1024::4               738498                       # Occupied blocks per task id, per block age (Count)
system.l2.tags.ratioOccsTaskId::1024                1                       # Ratio of occupied blocks and all blocks, per task id (Ratio)
system.l2.tags.tagAccesses                  155780859                       # Number of tag accesses (Count)
system.l2.tags.dataAccesses                 155780859                       # Number of data accesses (Count)
system.l2.tags.power_state.pwrStateResidencyTicks::UNDEFINED 1682378691500                       # Cumulative time (in ticks) in various power states (Tick)
system.mem_ctrls.avgPriority_writebacks::samples   6360788.00                       # Average QoS priority value for accepted requests (Count)
system.mem_ctrls.avgPriority_cpu.inst::samples      5267.00                       # Average QoS priority value for accepted requests (Count)
system.mem_ctrls.avgPriority_cpu.data::samples     19919.00                       # Average QoS priority value for accepted requests (Count)
system.mem_ctrls.priorityMinLatency      0.000000018750                       # per QoS priority minimum request to response latency (Second)
system.mem_ctrls.priorityMaxLatency      0.017582570500                       # per QoS priority maximum request to response latency (Second)
system.mem_ctrls.numReadWriteTurnArounds       351925                       # Number of turnarounds from READ to WRITE (Count)
system.mem_ctrls.numWriteReadTurnArounds       351925                       # Number of turnarounds from WRITE to READ (Count)
system.mem_ctrls.numStayReadState            50113107                       # Number of times bus staying in READ state (Count)
system.mem_ctrls.numStayWriteState            6098628                       # Number of times bus staying in WRITE state (Count)
system.mem_ctrls.readReqs                       25186                       # Number of read requests accepted (Count)
system.mem_ctrls.writeReqs                   50800230                       # Number of write requests accepted (Count)
system.mem_ctrls.readBursts                     25186                       # Number of controller read bursts, including those serviced by the write queue (Count)
system.mem_ctrls.writeBursts                 50800230                       # Number of controller write bursts, including those merged in the write queue (Count)
system.mem_ctrls.servicedByWrQ                      0                       # Number of controller read bursts serviced by the write queue (Count)
system.mem_ctrls.mergedWrBursts              44439442                       # Number of controller write bursts merged with an existing one (Count)
system.mem_ctrls.neitherReadNorWriteReqs            0                       # Number of requests that are neither read nor write (Count)
system.mem_ctrls.avgRdQLen                       1.00                       # Average read queue length when enqueuing ((Count/Tick))
system.mem_ctrls.avgWrQLen                      24.04                       # Average write queue length when enqueuing ((Count/Tick))
system.mem_ctrls.numRdRetry                         0                       # Number of times read queue was full causing retry (Count)
system.mem_ctrls.numWrRetry                         0                       # Number of times write queue was full causing retry (Count)
[...]
system.mem_ctrls.dram.perBankWrBursts::15       397553                       # Per bank write bursts (Count)
system.mem_ctrls.dram.totQLat               177104250                       # Total ticks spent queuing (Tick)
system.mem_ctrls.dram.totBusLat             125930000                       # Total ticks spent in databus transfers (Tick)
system.mem_ctrls.dram.totMemAccLat          649341750                       # Total ticks spent from burst creation until serviced by the DRAM (Tick)
system.mem_ctrls.dram.avgQLat                 7031.85                       # Average queueing delay per DRAM burst ((Tick/Count))
system.mem_ctrls.dram.avgBusLat               5000.00                       # Average bus latency per DRAM burst ((Tick/Count))
system.mem_ctrls.dram.avgMemAccLat           25781.85                       # Average memory access latency per DRAM burst ((Tick/Count))
system.mem_ctrls.dram.readRowHits               18270                       # Number of row buffer hits during reads (Count)
system.mem_ctrls.dram.writeRowHits            5786505                       # Number of row buffer hits during writes (Count)
system.mem_ctrls.dram.readRowHitRate            72.54                       # Row buffer hit rate for reads (Ratio)
system.mem_ctrls.dram.writeRowHitRate           90.97                       # Row buffer hit rate for writes (Ratio)
system.mem_ctrls.dram.bytesPerActivate::samples       581182                       # Bytes accessed per row activation (Byte)
system.mem_ctrls.dram.bytesPerActivate::mean   703.224092                       # Bytes accessed per row activation (Byte)
system.mem_ctrls.dram.bytesPerActivate::gmean   547.193097                       # Bytes accessed per row activation (Byte)
system.mem_ctrls.dram.bytesPerActivate::stdev   382.403388                       # Bytes accessed per row activation (Byte)
system.mem_ctrls.dram.bytesPerActivate::0-127         9751      1.68%      1.68% # Bytes accessed per row activation (Byte)
system.mem_ctrls.dram.bytesPerActivate::128-255        73807     12.70%     14.38% # Bytes accessed per row activation (Byte)
system.mem_ctrls.dram.bytesPerActivate::256-383       119544     20.57%     34.95% # Bytes accessed per row activation (Byte)
system.mem_ctrls.dram.bytesPerActivate::384-511        11129      1.91%     36.86% # Bytes accessed per row activation (Byte)
system.mem_ctrls.dram.bytesPerActivate::512-639        13664      2.35%     39.21% # Bytes accessed per row activation (Byte)
system.mem_ctrls.dram.bytesPerActivate::640-767        11694      2.01%     41.22% # Bytes accessed per row activation (Byte)
system.mem_ctrls.dram.bytesPerActivate::768-895        10858      1.87%     43.09% # Bytes accessed per row activation (Byte)
system.mem_ctrls.dram.bytesPerActivate::896-1023        14538      2.50%     45.59% # Bytes accessed per row activation (Byte)
system.mem_ctrls.dram.bytesPerActivate::1024-1151       316197     54.41%    100.00% # Bytes accessed per row activation (Byte)
system.mem_ctrls.dram.bytesPerActivate::total       581182                       # Bytes accessed per row activation (Byte)
system.mem_ctrls.dram.bytesRead               1611904                       # Total bytes read (Byte)
system.mem_ctrls.dram.bytesWritten          407089408                       # Total bytes written (Byte)
system.mem_ctrls.dram.avgRdBW                0.958110                       # Average DRAM read bandwidth in MiBytes/s ((Byte/Second))
system.mem_ctrls.dram.avgWrBW              241.972518                       # Average DRAM write bandwidth in MiBytes/s ((Byte/Second))
system.mem_ctrls.dram.peakBW                 12800.00                       # Theoretical peak bandwidth in MiByte/s ((Byte/Second))
system.mem_ctrls.dram.busUtil                    1.90                       # Data bus utilization in percentage (Ratio)
system.mem_ctrls.dram.busUtilRead                0.01                       # Data bus utilization in percentage for reads (Ratio)
system.mem_ctrls.dram.busUtilWrite               1.89                       # Data bus utilization in percentage for writes (Ratio)
system.mem_ctrls.dram.pageHitRate               90.90                       # Row buffer hit rate, read and write combined (Ratio)
system.mem_ctrls.dram.power_state.pwrStateResidencyTicks::UNDEFINED 1682378691500                       # Cumulative time (in ticks) in various power states (Tick)
system.mem_ctrls.dram.rank0.actEnergy      2076940320                       # Energy for activate commands per rank (pJ) (Joule)
system.mem_ctrls.dram.rank0.preEnergy      1103919960                       # Energy for precharge commands per rank (pJ) (Joule)
system.mem_ctrls.dram.rank0.readEnergy      101338020                       # Energy for read commands per rank (pJ) (Joule)
system.mem_ctrls.dram.rank0.writeEnergy   16600012380                       # Energy for write commands per rank (pJ) (Joule)
system.mem_ctrls.dram.rank0.refreshEnergy 132805264800.000015                       # Energy for refresh commands per rank (pJ) (Joule)
system.mem_ctrls.dram.rank0.actBackEnergy 311392770420                       # Energy for active background per rank (pJ) (Joule)
system.mem_ctrls.dram.rank0.preBackEnergy 383807927040                       # Energy for precharge background per rank (pJ) (Joule)
system.mem_ctrls.dram.rank0.actPowerDownEnergy            0                       # Energy for active power-down per rank (pJ) (Joule)
system.mem_ctrls.dram.rank0.prePowerDownEnergy            0                       # Energy for precharge power-down per rank (pJ) (Joule)
system.mem_ctrls.dram.rank0.selfRefreshEnergy            0                       # Energy for self refresh per rank (pJ) (Joule)
system.mem_ctrls.dram.rank0.totalEnergy  847888172940                       # Total energy per rank (pJ) (Joule)
system.mem_ctrls.dram.rank0.averagePower   503.981759                       # Core power per rank (mW) (Watt)
system.mem_ctrls.dram.rank0.totalIdleTime            0                       # Total Idle time Per DRAM Rank (Tick)
system.mem_ctrls.dram.rank0.pwrStateTime::IDLE 993418109250                       # Time in different power states (Tick)
system.mem_ctrls.dram.rank0.pwrStateTime::REF  56178200000                       # Time in different power states (Tick)
system.mem_ctrls.dram.rank0.pwrStateTime::SREF            0                       # Time in different power states (Tick)
system.mem_ctrls.dram.rank0.pwrStateTime::PRE_PDN            0                       # Time in different power states (Tick)
system.mem_ctrls.dram.rank0.pwrStateTime::ACT 632782382250                       # Time in different power states (Tick)
system.mem_ctrls.dram.rank0.pwrStateTime::ACT_PDN            0                       # Time in different power states (Tick)
system.mem_ctrls.dram.rank1.actEnergy      2072706300                       # Energy for activate commands per rank (pJ) (Joule)
system.mem_ctrls.dram.rank1.preEnergy      1101665730                       # Energy for precharge commands per rank (pJ) (Joule)
system.mem_ctrls.dram.rank1.readEnergy       78490020                       # Energy for read commands per rank (pJ) (Joule)
system.mem_ctrls.dram.rank1.writeEnergy   16603217460                       # Energy for write commands per rank (pJ) (Joule)
system.mem_ctrls.dram.rank1.refreshEnergy 132805264800.000015                       # Energy for refresh commands per rank (pJ) (Joule)
system.mem_ctrls.dram.rank1.actBackEnergy 311430354510                       # Energy for active background per rank (pJ) (Joule)
system.mem_ctrls.dram.rank1.preBackEnergy 383776277280                       # Energy for precharge background per rank (pJ) (Joule)
system.mem_ctrls.dram.rank1.actPowerDownEnergy            0                       # Energy for active power-down per rank (pJ) (Joule)
system.mem_ctrls.dram.rank1.prePowerDownEnergy            0                       # Energy for precharge power-down per rank (pJ) (Joule)
system.mem_ctrls.dram.rank1.selfRefreshEnergy            0                       # Energy for self refresh per rank (pJ) (Joule)
system.mem_ctrls.dram.rank1.totalEnergy  847867976100                       # Total energy per rank (pJ) (Joule)
system.mem_ctrls.dram.rank1.averagePower   503.969754                       # Core power per rank (mW) (Watt)
system.mem_ctrls.dram.rank1.totalIdleTime            0                       # Total Idle time Per DRAM Rank (Tick)
system.mem_ctrls.dram.rank1.pwrStateTime::IDLE 993335477000                       # Time in different power states (Tick)
system.mem_ctrls.dram.rank1.pwrStateTime::REF  56178200000                       # Time in different power states (Tick)
system.mem_ctrls.dram.rank1.pwrStateTime::SREF            0                       # Time in different power states (Tick)
system.mem_ctrls.dram.rank1.pwrStateTime::PRE_PDN            0                       # Time in different power states (Tick)
system.mem_ctrls.dram.rank1.pwrStateTime::ACT 632865014500                       # Time in different power states (Tick)
system.mem_ctrls.dram.rank1.pwrStateTime::ACT_PDN            0                       # Time in different power states (Tick)
system.mem_ctrls.power_state.pwrStateResidencyTicks::UNDEFINED 1682378691500                       # Cumulative time (in ticks) in various power states (Tick)
system.membus.transDist::ReadResp                6366                       # Transaction distribution (Count)
system.membus.transDist::WritebackDirty      50800230                       # Transaction distribution (Count)
system.membus.transDist::CleanEvict              6050                       # Transaction distribution (Count)
system.membus.transDist::ReadExReq              18820                       # Transaction distribution (Count)
system.membus.transDist::ReadExResp             18820                       # Transaction distribution (Count)
system.membus.transDist::ReadSharedReq           6366                       # Transaction distribution (Count)
system.membus.transDist::InvalidateReq       51829927                       # Transaction distribution (Count)
system.membus.pktCount_system.l2.mem_side_port::system.mem_ctrls.port    102686579                       # Packet count per connected requestor and responder (Count)
system.membus.pktCount_system.l2.mem_side_port::total    102686579                       # Packet count per connected requestor and responder (Count)
system.membus.pktCount::total               102686579                       # Packet count per connected requestor and responder (Count)
system.membus.pktSize_system.l2.mem_side_port::system.mem_ctrls.port    406603328                       # Cumulative packet size per connected requestor and responder (Byte)
system.membus.pktSize_system.l2.mem_side_port::total    406603328                       # Cumulative packet size per connected requestor and responder (Byte)
system.membus.pktSize::total                406603328                       # Cumulative packet size per connected requestor and responder (Byte)
system.membus.snoops                                0                       # Total snoops (Count)
system.membus.snoopTraffic                          0                       # Total snoop traffic (Byte)
system.membus.snoopFanout::samples           51855113                       # Request fanout histogram (Count)
system.membus.snoopFanout::mean                     0                       # Request fanout histogram (Count)
system.membus.snoopFanout::stdev                    0                       # Request fanout histogram (Count)
system.membus.snoopFanout::underflows               0      0.00%      0.00% # Request fanout histogram (Count)
system.membus.snoopFanout::0                 51855113    100.00%    100.00% # Request fanout histogram (Count)
system.membus.snoopFanout::1                        0      0.00%    100.00% # Request fanout histogram (Count)
system.membus.snoopFanout::overflows                0      0.00%    100.00% # Request fanout histogram (Count)
system.membus.snoopFanout::min_value                0                       # Request fanout histogram (Count)
system.membus.snoopFanout::max_value                0                       # Request fanout histogram (Count)
system.membus.snoopFanout::total             51855113                       # Request fanout histogram (Count)
system.membus.power_state.pwrStateResidencyTicks::UNDEFINED 1682378691500                       # Cumulative time (in ticks) in various power states (Tick)
system.membus.reqLayer2.occupancy        153461627500                       # Layer occupancy (ticks) (Tick)
system.membus.reqLayer2.utilization               0.1                       # Layer utilization (Ratio)
system.membus.respLayer1.occupancy           58409250                       # Layer occupancy (ticks) (Tick)
system.membus.respLayer1.utilization              0.0                       # Layer utilization (Ratio)
system.membus.snoop_filter.totRequests      102661393                       # Total number of requests made to the snoop filter. (Count)
system.membus.snoop_filter.hitSingleRequests     50806280                       # Number of requests hitting in the snoop filter with a single holder of the requested data. (Count)
system.membus.snoop_filter.hitMultiRequests            0                       # Number of requests hitting in the snoop filter with multiple (>1) holders of the requested data. (Count)
system.membus.snoop_filter.totSnoops                0                       # Total number of snoops made to the snoop filter. (Count)
system.membus.snoop_filter.hitSingleSnoops            0                       # Number of snoops hitting in the snoop filter with a single holder of the requested data. (Count)
system.membus.snoop_filter.hitMultiSnoops            0                       # Number of snoops hitting in the snoop filter with multiple (>1) holders of the requested data. (Count)
system.tol2bus.transDist::ReadResp              98927                       # Transaction distribution (Count)
system.tol2bus.transDist::WritebackDirty    102673552                       # Transaction distribution (Count)
system.tol2bus.transDist::WritebackClean        47930                       # Transaction distribution (Count)
system.tol2bus.transDist::CleanEvict            46918                       # Transaction distribution (Count)
system.tol2bus.transDist::ReadExReq             31167                       # Transaction distribution (Count)
system.tol2bus.transDist::ReadExResp            31167                       # Transaction distribution (Count)
system.tol2bus.transDist::ReadCleanReq          48058                       # Transaction distribution (Count)
system.tol2bus.transDist::ReadSharedReq         50869                       # Transaction distribution (Count)
system.tol2bus.transDist::InvalidateReq      51831858                       # Transaction distribution (Count)
system.tol2bus.transDist::InvalidateResp     51831858                       # Transaction distribution (Count)
system.tol2bus.pktCount_system.cpu.icache.mem_side_port::system.l2.cpu_side_port       144046                       # Packet count per connected requestor and responder (Count)
system.tol2bus.pktCount_system.cpu.dcache.mem_side_port::system.l2.cpu_side_port    155741554                       # Packet count per connected requestor and responder (Count)
system.tol2bus.pktCount::total              155885600                       # Packet count per connected requestor and responder (Count)
system.tol2bus.pktSize_system.cpu.icache.mem_side_port::system.l2.cpu_side_port       767904                       # Cumulative packet size per connected requestor and responder (Byte)
system.tol2bus.pktSize_system.cpu.dcache.mem_side_port::system.l2.cpu_side_port    415642856                       # Cumulative packet size per connected requestor and responder (Byte)
system.tol2bus.pktSize::total               416410760                       # Cumulative packet size per connected requestor and responder (Byte)
system.tol2bus.snoops                        50806704                       # Total snoops (Count)
system.tol2bus.snoopTraffic                 406401848                       # Total snoop traffic (Byte)
system.tol2bus.snoopFanout::samples         102768656                       # Request fanout histogram (Count)
system.tol2bus.snoopFanout::mean             0.000004                       # Request fanout histogram (Count)
system.tol2bus.snoopFanout::stdev            0.002029                       # Request fanout histogram (Count)
system.tol2bus.snoopFanout::underflows              0      0.00%      0.00% # Request fanout histogram (Count)
system.tol2bus.snoopFanout::0               102768233    100.00%    100.00% # Request fanout histogram (Count)
system.tol2bus.snoopFanout::1                     423      0.00%    100.00% # Request fanout histogram (Count)
system.tol2bus.snoopFanout::2                       0      0.00%    100.00% # Request fanout histogram (Count)
system.tol2bus.snoopFanout::3                       0      0.00%    100.00% # Request fanout histogram (Count)
system.tol2bus.snoopFanout::4                       0      0.00%    100.00% # Request fanout histogram (Count)
system.tol2bus.snoopFanout::overflows               0      0.00%    100.00% # Request fanout histogram (Count)
system.tol2bus.snoopFanout::min_value               0                       # Request fanout histogram (Count)
system.tol2bus.snoopFanout::max_value               1                       # Request fanout histogram (Count)
system.tol2bus.snoopFanout::total           102768656                       # Request fanout histogram (Count)
system.tol2bus.power_state.pwrStateResidencyTicks::UNDEFINED 1682378691500                       # Cumulative time (in ticks) in various power states (Tick)
system.tol2bus.reqLayer0.occupancy        77922449500                       # Layer occupancy (ticks) (Tick)
system.tol2bus.reqLayer0.utilization              0.0                       # Layer utilization (Ratio)
system.tol2bus.respLayer0.occupancy          48058000                       # Layer occupancy (ticks) (Tick)
system.tol2bus.respLayer0.utilization             0.0                       # Layer utilization (Ratio)
system.tol2bus.respLayer1.occupancy       25997965000                       # Layer occupancy (ticks) (Tick)
system.tol2bus.respLayer1.utilization             0.0                       # Layer utilization (Ratio)
system.tol2bus.snoop_filter.totRequests     103923648                       # Total number of requests made to the snoop filter. (Count)
system.tol2bus.snoop_filter.hitSingleRequests     51961696                       # Number of requests hitting in the snoop filter with a single holder of the requested data. (Count)
system.tol2bus.snoop_filter.hitMultiRequests            0                       # Number of requests hitting in the snoop filter with multiple (>1) holders of the requested data. (Count)
system.tol2bus.snoop_filter.totSnoops             423                       # Total number of snoops made to the snoop filter. (Count)
system.tol2bus.snoop_filter.hitSingleSnoops          423                       # Number of snoops hitting in the snoop filter with a single holder of the requested data. (Count)
system.tol2bus.snoop_filter.hitMultiSnoops            0                       # Number of snoops hitting in the snoop filter with multiple (>1) holders of the requested data. (Count)
system.voltage_domain.voltage                       1                       # Voltage in Volts (Volt)
system.workload.inst.arm                            0                       # number of arm instructions executed (Count)
system.workload.inst.quiesce                        0                       # number of quiesce instructions executed (Count)

---------- End Simulation Statistics   ----------
